21

C -3.188666 1.442861 -0.048882
N -2.113273 0.641993 -0.594782
C -1.150909 0.108783 0.151162
O -1.067223 0.194996 1.367671
C -0.116463 -0.759885 -0.655137
C -0.733238 -2.074415 -0.793215
N 1.128370 -0.779125 0.073069
C 1.835990 0.354960 0.248825
C 2.996828 0.229488 1.200844
O 1.563000 1.388879 -0.354026
H -3.109704 1.420817 1.036059
H -4.148187 1.028668 -0.354675
H -3.108120 2.473255 -0.393892
H -2.065950 0.562917 -1.599286
H 0.052788 -0.254400 -1.612876
H -1.512863 -2.218860 -1.512669
H -0.600403 -2.809708 -0.024627
H 1.276903 -1.552091 0.704584
H 3.624003 1.112224 1.122090
H 2.611450 0.158207 2.215587
H 3.577738 -0.660247 0.977951