22

C -2.837778 0.220845 -1.343881
C -2.272739 -0.397341 0.011678
N -2.971223 0.096900 1.241395
C -0.800261 -0.056898 0.085395
O -0.364865 1.070455 -0.069260
N 0.024091 -1.111791 0.341617
C 1.460241 -0.905869 0.439670
C 1.879804 -0.591647 1.867323
C 1.852892 0.246726 -0.478943
O 2.600566 1.141880 -0.205337
O 1.454773 -0.007997 -1.714466
H -3.869700 -0.220164 -1.389815
H -2.294899 -0.558998 -2.095625
H -2.657386 1.070589 -1.476437
H -2.441258 -1.455971 0.250680
H -2.643714 1.293136 1.138390
H -3.960993 0.315485 1.070883
H -0.351988 -2.042302 0.445199
H 1.950905 -1.797012 -0.039013
H 1.308096 0.150399 2.248198
H 2.944055 -0.443982 1.859019
H 1.692226 0.861496 -2.271230
22

C -2.837778 0.220845 -1.343881
C -2.272739 -0.397341 0.011678
N -2.971223 0.096900 1.241395
C -0.800261 -0.056898 0.085395
O -0.364865 1.070455 -0.069260
N 0.024091 -1.111791 0.341617
C 1.460241 -0.905869 0.439670
C 1.879804 -0.591647 1.867323
C 1.852892 0.246726 -0.478943
O 2.600566 1.141880 -0.205337
O 1.454773 -0.007997 -1.714466
H -3.869700 -0.220164 -1.389815
H -2.294899 -0.558998 -2.095625
H -2.657386 1.070589 -1.476437
H -2.441258 -1.455971 0.250680
H -2.643714 1.293136 1.138390
H -3.960993 0.315485 1.070883
H -0.351988 -2.042302 0.445199
H 1.950905 -1.797012 -0.039013
H 1.308096 0.150399 2.248198
H 2.944055 -0.443982 1.859019
H 1.692226 0.861496 -2.271230